science/ieee8500_b0_may01_fine_scale/csv/B0_0.574_CRITICAL_TIME_HEATMAP.csv
element_type,element_id,from_bus,to_bus,x_from,y_from,x_to,y_to,terminal,phase,data_status,B0_loading_at_critical_time,critical_slot,critical_time_AEST
line,line.hvmv_sub_connector,_hvmv_sub_lsb,hvmv_sub_48332,1693852,12277577.7570982,1693886,12277577.7570982,1,1,OK,0.907051633698081,75,2025-05-01T18:45:00+10:00
line,line.hvmv_sub_connector,_hvmv_sub_lsb,hvmv_sub_48332,1693852,12277577.7570982,1693886,12277577.7570982,1,2,OK,0.8891666105460725,75,2025-05-01T18:45:00+10:00
line,line.hvmv_sub_connector,_hvmv_sub_lsb,hvmv_sub_48332,1693852,12277577.7570982,1693886,12277577.7570982,1,3,OK,0.8643727342447276,75,2025-05-01T18:45:00+10:00
line,line.hvmv_sub_connector,_hvmv_sub_lsb,hvmv_sub_48332,1693852,12277577.7570982,1693886,12277577.7570982,2,1,OK,0.907051633698081,75,2025-05-01T18:45:00+10:00
line,line.hvmv_sub_connector,_hvmv_sub_lsb,hvmv_sub_48332,1693852,12277577.7570982,1693886,12277577.7570982,2,2,OK,0.8891666105460725,75,2025-05-01T18:45:00+10:00
line,line.hvmv_sub_connector,_hvmv_sub_lsb,hvmv_sub_48332,1693852,12277577.7570982,1693886,12277577.7570982,2,3,OK,0.8643727342447276,75,2025-05-01T18:45:00+10:00
line,line.ln5502549-1,m1009763,l2673322,1662434.20000574,12281193.2184775,1662466.18157377,12281293.8203336,1,2,OK,0.0028701039984775356,75,2025-05-01T18:45:00+10:00
line,line.ln5502549-1,m1009763,l2673322,1662434.20000574,12281193.2184775,1662466.18157377,12281293.8203336,2,2,OK,0.002870464628580239,75,2025-05-01T18:45:00+10:00
line,line.ln6259988-1,m1069148,l2673309,1674268.12974476,12266091.5900475,1673916.32020843,12266089.1693115,1,3,OK,0.002099356321718394,75,2025-05-01T18:45:00+10:00
line,line.ln6259988-1,m1069148,l2673309,1674268.12974476,12266091.5900475,1673916.32020843,12266089.1693115,2,3,OK,0.0021005960519817125,75,2025-05-01T18:45:00+10:00
line,line.ln6077796-1,m1069588,l2804270,1674984.67169743,12287113.040307,1674953.4315054,12287092.199859,1,2,OK,0.002435481450255237,75,2025-05-01T18:45:00+10:00
line,line.ln6077796-1,m1069588,l2804270,1674984.67169743,12287113.040307,1674953.4315054,12287092.199859,2,2,OK,0.0024356114867038186,75,2025-05-01T18:45:00+10:00
line,line.ln5835135-2,m3036164,l2935553,1668428.08980332,12289757.0697495,1668339.05914724,12289885.9790616,1,2,OK,0.024046551254116033,75,2025-05-01T18:45:00+10:00
line,line.ln5835135-2,m3036164,l2935553,1668428.08980332,12289757.0697495,1668339.05914724,12289885.9790616,2,2,OK,0.024047072469884072,75,2025-05-01T18:45:00+10:00
line,line.ln5896826-1,m1209749,l2748840,1692000.00048127,12273042.1702779,1692304.77974556,12272449.8804854,1,2,OK,0.0012031932264977244,75,2025-05-01T18:45:00+10:00
line,line.ln5896826-1,m1209749,l2748840,1692000.00048127,12273042.1702779,1692304.77974556,12272449.8804854,2,2,OK,0.001205570406155132,75,2025-05-01T18:45:00+10:00
line,line.ln5714038-1,m1108264,m1108263,1679540.54190967,12260421.0589702,1679627.65154175,12260104.7699459,1,2,OK,0.0031853197084520655,75,2025-05-01T18:45:00+10:00
line,line.ln5714038-1,m1108264,m1108263,1679540.54190967,12260421.0589702,1679627.65154175,12260104.7699459,2,2,OK,0.00318642562534253,75,2025-05-01T18:45:00+10:00
line,line.ln5653457-1,l3085398,m1026891,1663360.6087106,12285489.5210735,1663258.8886465,12285227.3688813,1,1,OK,0.056741134456558096,75,2025-05-01T18:45:00+10:00
line,line.ln5653457-1,l3085398,m1026891,1663360.6087106,12285489.5210735,1663258.8886465,12285227.3688813,1,2,OK,0.08949092254704366,75,2025-05-01T18:45:00+10:00
line,line.ln5653457-1,l3085398,m1026891,1663360.6087106,12285489.5210735,1663258.8886465,12285227.3688813,1,3,OK,0.05081098045233557,75,2025-05-01T18:45:00+10:00
line,line.ln5653457-1,l3085398,m1026891,1663360.6087106,12285489.5210735,1663258.8886465,12285227.3688813,2,1,OK,0.05674289358434791,75,2025-05-01T18:45:00+10:00
line,line.ln5653457-1,l3085398,m1026891,1663360.6087106,12285489.5210735,1663258.8886465,12285227.3688813,2,2,OK,0.08949275710435545,75,2025-05-01T18:45:00+10:00
line,line.ln5653457-1,l3085398,m1026891,1663360.6087106,12285489.5210735,1663258.8886465,12285227.3688813,2,3,OK,0.05081226498703592,75,2025-05-01T18:45:00+10:00
line,line.ln5835173-1,l3216367,m1069468,1673511.27086405,12278909.6206514,1673577.79809611,12278791.4018993,1,1,OK,0.048804415733984634,75,2025-05-01T18:45:00+10:00
line,line.ln5835173-1,l3216367,m1069468,1673511.27086405,12278909.6206514,1673577.79809611,12278791.4018993,1,2,OK,0.0996846230840002,75,2025-05-01T18:45:00+10:00
line,line.ln5835173-1,l3216367,m1069468,1673511.27086405,12278909.6206514,1673577.79809611,12278791.4018993,1,3,OK,0.07717853243175679,75,2025-05-01T18:45:00+10:00
line,line.ln5835173-1,l3216367,m1069468,1673511.27086405,12278909.6206514,1673577.79809611,12278791.4018993,2,1,OK,0.048805304965529234,75,2025-05-01T18:45:00+10:00
line,line.ln5835173-1,l3216367,m1069468,1673511.27086405,12278909.6206514,1673577.79809611,12278791.4018993,2,2,OK,0.09968558082996955,75,2025-05-01T18:45:00+10:00
line,line.ln5835173-1,l3216367,m1069468,1673511.27086405,12278909.6206514,1673577.79809611,12278791.4018993,2,3,OK,0.07717913766570342,75,2025-05-01T18:45:00+10:00
line,line.ln6321415-1,m1142800,m1142799,1686401.39106806,12272256.4509812,1686166.70255584,12272059.916709,1,2,OK,0.002044621592578067,75,2025-05-01T18:45:00+10:00
line,line.ln6321415-1,m1142800,m1142799,1686401.39106806,12272256.4509812,1686166.70255584,12272059.916709,2,2,OK,0.002045666520402846,75,2025-05-01T18:45:00+10:00
line,line.ln5565092-1,m1047592,p827512,1668812.72058768,12283524.2602717,1668818.20103568,12283534.9303517,1,3,OK,0.003155042131907536,75,2025-05-01T18:45:00+10:00
line,line.ln5565092-1,m1047592,p827512,1668812.72058768,12283524.2602717,1668818.20103568,12283534.9303517,2,3,OK,0.0031550841891305227,75,2025-05-01T18:45:00+10:00
line,line.ln6073648-1,m1047339,p895104,1671536.88827021,12264379.6013099,1671529.47041421,12264403.8864939,1,1,OK,0.0044435825256088106,75,2025-05-01T18:45:00+10:00
line,line.ln6073648-1,m1047339,p895104,1671536.88827021,12264379.6013099,1671529.47041421,12264403.8864939,2,1,OK,0.004443670056028699,75,2025-05-01T18:45:00+10:00
line,line.ln5774457-1,m1026915,m1026920,1663539.86195877,12285876.8797939,1663580.1502148,12286004.691378,1,1,OK,0.04309708559152889,75,2025-05-01T18:45:00+10:00
line,line.ln5774457-1,m1026915,m1026920,1663539.86195877,12285876.8797939,1663580.1502148,12286004.691378,1,2,OK,0.03515040252489873,75,2025-05-01T18:45:00+10:00
line,line.ln5774457-1,m1026915,m1026920,1663539.86195877,12285876.8797939,1663580.1502148,12286004.691378,1,3,OK,0.033289828597980395,75,2025-05-01T18:45:00+10:00
line,line.ln5774457-1,m1026915,m1026920,1663539.86195877,12285876.8797939,1663580.1502148,12286004.691378,2,1,OK,0.04309786031492157,75,2025-05-01T18:45:00+10:00
line,line.ln5774457-1,m1026915,m1026920,1663539.86195877,12285876.8797939,1663580.1502148,12286004.691378,2,2,OK,0.03515127479173545,75,2025-05-01T18:45:00+10:00
line,line.ln5774457-1,m1026915,m1026920,1663539.86195877,12285876.8797939,1663580.1502148,12286004.691378,2,3,OK,0.033290349409893456,75,2025-05-01T18:45:00+10:00
line,line.ln5534966-3,n1138596,l3254207,1673874.29115239,12274484.2244233,1673949.12097646,12274513.4985353,1,1,OK,0.016076878668651328,75,2025-05-01T18:45:00+10:00
line,line.ln5534966-3,n1138596,l3254207,1673874.29115239,12274484.2244233,1673949.12097646,12274513.4985353,2,1,OK,0.016077158897918276,75,2025-05-01T18:45:00+10:00
line,line.ln5859996-1,m1069464,p873787,1673734.40046426,12278609.6623791,1673733.52392026,12278589.2233391,1,2,OK,0.004096169347834003,75,2025-05-01T18:45:00+10:00
line,line.ln5859996-1,m1069464,p873787,1673734.40046426,12278609.6623791,1673733.52392026,12278589.2233391,2,2,OK,0.004096241426706856,75,2025-05-01T18:45:00+10:00
line,line.ln6138610-2,n1144665,m1047515,1669973.12148476,12282252.9970385,1669891.14823668,12282216.1903825,1,1,OK,0.2210408100865426,75,2025-05-01T18:45:00+10:00
line,line.ln6138610-2,n1144665,m1047515,1669973.12148476,12282252.9970385,1669891.14823668,12282216.1903825,1,2,OK,0.18175667981638227,75,2025-05-01T18:45:00+10:00
line,line.ln6138610-2,n1144665,m1047515,1669973.12148476,12282252.9970385,1669891.14823668,12282216.1903825,1,3,OK,0.19985400242140258,75,2025-05-01T18:45:00+10:00
line,line.ln6138610-2,n1144665,m1047515,1669973.12148476,12282252.9970385,1669891.14823668,12282216.1903825,2,1,OK,0.22104135623509755,75,2025-05-01T18:45:00+10:00
line,line.ln6138610-2,n1144665,m1047515,1669973.12148476,12282252.9970385,1669891.14823668,12282216.1903825,2,2,OK,0.18175726707325515,75,2025-05-01T18:45:00+10:00
line,line.ln6138610-2,n1144665,m1047515,1669973.12148476,12282252.9970385,1669891.14823668,12282216.1903825,2,3,OK,0.19985439153380194,75,2025-05-01T18:45:00+10:00
line,line.ln6258435-3,n1137002,m1047707,1670188.25978896,12285034.7176171,1669945.41204473,12285152.3997932,1,1,OK,0.0036757810802734276,75,2025-05-01T18:45:00+10:00
line,line.ln6258435-3,n1137002,m1047707,1670188.25978896,12285034.7176171,1669945.41204473,12285152.3997932,2,1,OK,0.003676877460692487,75,2025-05-01T18:45:00+10:00
line,line.ln5804790-1,l2729406,l2897768,1677474.04027574,12277937.7504425,1678112.75822834,12277952.0618665,1,3,OK,0.00215600119770051,75,2025-05-01T18:45:00+10:00
line,line.ln5804790-1,l2729406,l2897768,1677474.04027574,12277937.7504425,1678112.75822834,12277952.0618665,2,3,OK,0.002158179995667329,75,2025-05-01T18:45:00+10:00
line,line.ln6900591-14,l3649301,l3649302,1668008.60615493,12284893.004209,1668009.60967493,12285099.8931692,1,1,OK,0.0066482982450925,75,2025-05-01T18:45:00+10:00
line,line.ln6900591-14,l3649301,l3649302,1668008.60615493,12284893.004209,1668009.60967493,12285099.8931692,2,1,OK,0.006649047765795144,75,2025-05-01T18:45:00+10:00
line,line.ln6409873-1,l2970842,m1089113,1676929.30094724,12268558.7337298,1677067.30337936,12268367.5119696,1,2,OK,0.015351899544806525,75,2025-05-01T18:45:00+10:00
line,line.ln6409873-1,l2970842,m1089113,1676929.30094724,12268558.7337298,1677067.30337936,12268367.5119696,2,2,OK,0.015352697064032974,75,2025-05-01T18:45:00+10:00
line,line.ln6014135-1,m1047312,p893163,1670458.30087721,12263309.3083169,1670449.4248452,12263319.6097569,1,1,OK,0.013928379939053962,75,2025-05-01T18:45:00+10:00
line,line.ln6014135-1,m1047312,p893163,1670458.30087721,12263309.3083169,1670449.4248452,12263319.6097569,2,1,OK,0.013928426856871335,75,2025-05-01T18:45:00+10:00
line,line.ln6077784-1,l2822871,m1026872,1665333.16039244,12284492.3416806,1665207.33946432,12284644.3483367,1,1,OK,0.11110555951224228,75,2025-05-01T18:45:00+10:00
line,line.ln6077784-1,l2822871,m1026872,1665333.16039244,12284492.3416806,1665207.33946432,12284644.3483367,1,2,OK,0.12972163834631967,75,2025-05-01T18:45:00+10:00
line,line.ln6077784-1,l2822871,m1026872,1665333.16039244,12284492.3416806,1665207.33946432,12284644.3483367,1,3,OK,0.08953897517874648,75,2025-05-01T18:45:00+10:00
line,line.ln6077784-1,l2822871,m1026872,1665333.16039244,12284492.3416806,1665207.33946432,12284644.3483367,2,1,OK,0.11110689263776939,75,2025-05-01T18:45:00+10:00
line,line.ln6077784-1,l2822871,m1026872,1665333.16039244,12284492.3416806,1665207.33946432,12284644.3483367,2,2,OK,0.12972307268904157,75,2025-05-01T18:45:00+10:00
line,line.ln6077784-1,l2822871,m1026872,1665333.16039244,12284492.3416806,1665207.33946432,12284644.3483367,2,3,OK,0.08953989374543013,75,2025-05-01T18:45:00+10:00
line,line.ln5744338-1,m1026312,l2973163,1664935.63949607,12258310.4106482,1664810.08890395,12258187.8091761,1,2,OK,0.0387847931335439,75,2025-05-01T18:45:00+10:00
line,line.ln5744338-1,m1026312,l2973163,1664935.63949607,12258310.4106482,1664810.08890395,12258187.8091761,2,2,OK,0.038785386801510204,75,2025-05-01T18:45:00+10:00
line,line.ln6991381-4,l3728038,l3728039,1669619.09601243,12279615.9922361,1669413.10407624,12279773.8848442,1,1,OK,0.0073905170413245316,75,2025-05-01T18:45:00+10:00
line,line.ln6991381-4,l3728038,l3728039,1669619.09601243,12279615.9922361,1669413.10407624,12279773.8848442,2,1,OK,0.007391454977808497,75,2025-05-01T18:45:00+10:00
line,line.ln5774480-1,m1069567,m1069582,1674888.19041734,12286519.2595705,1675139.09908957,12286953.7919229,1,2,OK,0.045994735977865873,75,2025-05-01T18:45:00+10:00
line,line.ln5774480-1,m1069567,m1069582,1674888.19041734,12286519.2595705,1675139.09908957,12286953.7919229,2,2,OK,0.045996470881692175,75,2025-05-01T18:45:00+10:00
line,line.ln5986938-3,n1140830,l3216351,1664731.43341588,12277883.8757544,1664756.5992399,12277870.1336744,1,1,OK,0.007832532869500424,75,2025-05-01T18:45:00+10:00
line,line.ln5986938-3,n1140830,l3216351,1664731.43341588,12277883.8757544,1664756.5992399,12277870.1336744,2,1,OK,0.007832629901845656,75,2025-05-01T18:45:00+10:00
line,line.ln5894230-1,l2952007,l2861158,1687211.45289281,12284312.6051044,1686796.48303643,12284325.7737444,1,3,OK,0.00211216393703494,75,2025-05-01T18:45:00+10:00
line,line.ln5894230-1,l2952007,l2861158,1687211.45289281,12284312.6051044,1686796.48303643,12284325.7737444,2,3,OK,0.002113599710571576,75,2025-05-01T18:45:00+10:00
line,line.ln5683858-3,n1140827,m1026726,1665613.6258007,12278455.280043,1665615.0266327,12278511.919531,1,1,OK,0.01770849029956698,75,2025-05-01T18:45:00+10:00
line,line.ln5683858-3,n1140827,m1026726,1665613.6258007,12278455.280043,1665615.0266327,12278511.919531,1,2,OK,0.020056268252587824,75,2025-05-01T18:45:00+10:00
line,line.ln5683858-3,n1140827,m1026726,1665613.6258007,12278455.280043,1665615.0266327,12278511.919531,1,3,OK,0.018174168797504595,75,2025-05-01T18:45:00+10:00
line,line.ln5683858-3,n1140827,m1026726,1665613.6258007,12278455.280043,1665615.0266327,12278511.919531,2,1,OK,0.017708865318903193,75,2025-05-01T18:45:00+10:00
line,line.ln5683858-3,n1140827,m1026726,1665613.6258007,12278455.280043,1665615.0266327,12278511.919531,2,2,OK,0.02005666002922621,75,2025-05-01T18:45:00+10:00
line,line.ln5683858-3,n1140827,m1026726,1665613.6258007,12278455.280043,1665615.0266327,12278511.919531,2,3,OK,0.018174440425315064,75,2025-05-01T18:45:00+10:00
line,line.ln5920279-5,l2730106,n1142099,1681252.82146326,12280907.3791173,1681215.67074323,12280970.6705093,1,1,OK,0.5875301263018056,75,2025-05-01T18:45:00+10:00
line,line.ln5920279-5,l2730106,n1142099,1681252.82146326,12280907.3791173,1681215.67074323,12280970.6705093,1,2,OK,0.5634310891122144,75,2025-05-01T18:45:00+10:00
line,line.ln5920279-5,l2730106,n1142099,1681252.82146326,12280907.3791173,1681215.67074323,12280970.6705093,1,3,OK,0.43598259576294174,75,2025-05-01T18:45:00+10:00
line,line.ln5920279-5,l2730106,n1142099,1681252.82146326,12280907.3791173,1681215.67074323,12280970.6705093,2,1,OK,0.5875303094585482,75,2025-05-01T18:45:00+10:00
line,line.ln5920279-5,l2730106,n1142099,1681252.82146326,12280907.3791173,1681215.67074323,12280970.6705093,2,2,OK,0.563431318009814,75,2025-05-01T18:45:00+10:00
line,line.ln5920279-5,l2730106,n1142099,1681252.82146326,12280907.3791173,1681215.67074323,12280970.6705093,2,3,OK,0.435982416936838,75,2025-05-01T18:45:00+10:00
line,line.ln6439600-1,m1026658,l3172805,1663229.61043848,12276549.5300252,1663438.05997467,12276268.3723929,1,1,OK,0.0018711038548922007,75,2025-05-01T18:45:00+10:00
line,line.ln6439600-1,m1026658,l3172805,1663229.61043848,12276549.5300252,1663438.05997467,12276268.3723929,2,1,OK,0.0018723487872225964,75,2025-05-01T18:45:00+10:00
line,line.ln5589097-1,p895112,l3048962,1685510.74453923,12276023.5667607,1685564.43900328,12276088.1688728,1,1,OK,0.0028224715358325997,75,2025-05-01T18:45:00+10:00
line,line.ln5589097-1,p895112,l3048962,1685510.74453923,12276023.5667607,1685564.43900328,12276088.1688728,2,1,OK,0.0028227701095020603,75,2025-05-01T18:45:00+10:00
line,line.ln5651975-1,l2991914,m1047503,1669053.9790839,12281719.001518,1668955.67098781,12281655.632302,1,1,OK,0.11647687827569936,75,2025-05-01T18:45:00+10:00
line,line.ln5651975-1,l2991914,m1047503,1669053.9790839,12281719.001518,1668955.67098781,12281655.632302,1,2,OK,0.04964788618543923,75,2025-05-01T18:45:00+10:00
line,line.ln5651975-1,l2991914,m1047503,1669053.9790839,12281719.001518,1668955.67098781,12281655.632302,1,3,OK,0.07612750860057957,75,2025-05-01T18:45:00+10:00
line,line.ln5651975-1,l2991914,m1047503,1669053.9790839,12281719.001518,1668955.67098781,12281655.632302,2,1,OK,0.1164775898832973,75,2025-05-01T18:45:00+10:00
line,line.ln5651975-1,l2991914,m1047503,1669053.9790839,12281719.001518,1668955.67098781,12281655.632302,2,2,OK,0.04964867239255273,75,2025-05-01T18:45:00+10:00
line,line.ln5651975-1,l2991914,m1047503,1669053.9790839,12281719.001518,1668955.67098781,12281655.632302,2,3,OK,0.07612802027103215,75,2025-05-01T18:45:00+10:00
line,line.ln5865236-1,m1047751,l2973154,1670806.28884553,12288000.0004359,1670826.33057355,12287978.0008198,1,1,OK,0.003688019095788197,75,2025-05-01T18:45:00+10:00
line,line.ln5865236-1,m1047751,l2973154,1670806.28884553,12288000.0004359,1670826.33057355,12287978.0008198,2,1,OK,0.0036881255846879816,75,2025-05-01T18:45:00+10:00
line,line.ln5593232-1,l3010565,l2897775,1676182.30933054,12269540.1803867,1676578.54817891,12269464.5805146,1,3,OK,0.002087860215092015,75,2025-05-01T18:45:00+10:00
line,line.ln5593232-1,l3010565,l2897775,1676182.30933054,12269540.1803867,1676578.54817891,12269464.5805146,2,3,OK,0.0020895218259764856,75,2025-05-01T18:45:00+10:00
line,line.ln5740283-1,m1125955,m1125957,1683291.87170516,12277627.6504742,1683309.14863318,12277641.9004582,1,3,OK,0.002526458403579507,75,2025-05-01T18:45:00+10:00
line,line.ln5740283-1,m1125955,m1125957,1683291.87170516,12277627.6504742,1683309.14863318,12277641.9004582,2,3,OK,0.0025265358872449658,75,2025-05-01T18:45:00+10:00
line,line.ln6106559-1,m1069640,l2804269,1674008.16891252,12289009.6111888,1674078.03028858,12289268.351413,1,2,OK,0.005685697535219078,75,2025-05-01T18:45:00+10:00
line,line.ln6106559-1,m1069640,l2804269,1674008.16891252,12289009.6111888,1674078.03028858,12289268.351413,2,2,OK,0.0056868386612378774,75,2025-05-01T18:45:00+10:00
line,line.ln5714056-3,m1026702,n1139551,1666852.66989785,12278175.7812907,1666463.86528949,12278010.8066986,1,1,OK,0.08842911603087027,75,2025-05-01T18:45:00+10:00
line,line.ln5714056-3,m1026702,n1139551,1666852.66989785,12278175.7812907,1666463.86528949,12278010.8066986,1,2,OK,0.030685904417307987,75,2025-05-01T18:45:00+10:00
line,line.ln5714056-3,m1026702,n1139551,1666852.66989785,12278175.7812907,1666463.86528949,12278010.8066986,1,3,OK,0.05089707261143002,75,2025-05-01T18:45:00+10:00
line,line.ln5714056-3,m1026702,n1139551,1666852.66989785,12278175.7812907,1666463.86528949,12278010.8066986,2,1,OK,0.08843162038034981,75,2025-05-01T18:45:00+10:00
line,line.ln5714056-3,m1026702,n1139551,1666852.66989785,12278175.7812907,1666463.86528949,12278010.8066986,2,2,OK,0.030688688618249704,75,2025-05-01T18:45:00+10:00
line,line.ln5714056-3,m1026702,n1139551,1666852.66989785,12278175.7812907,1666463.86528949,12278010.8066986,2,3,OK,0.05089885664626783,75,2025-05-01T18:45:00+10:00
line,line.ln5985355-3,n1136355,l2783231,1675345.01729776,12285527.1469296,1675138.93115357,12285645.6196337,1,2,OK,0.08030613621489283,75,2025-05-01T18:45:00+10:00
line,line.ln5985355-3,n1136355,l2783231,1675345.01729776,12285527.1469296,1675138.93115357,12285645.6196337,2,2,OK,0.08030696185430757,75,2025-05-01T18:45:00+10:00
line,line.ln5531956-1,l2748143,l3251854,1675902.33953828,12286396.3713784,1675902.33953828,12286616.3716346,1,1,OK,0.0018527984475806426,75,2025-05-01T18:45:00+10:00
line,line.ln5531956-1,l2748143,l3251854,1675902.33953828,12286396.3713784,1675902.33953828,12286616.3716346,2,1,OK,0.0018535917659506975,75,2025-05-01T18:45:00+10:00
line,line.ln5650048-1,m1069610,m1069600,1674805.91406526,12287986.7048199,1674960.5257774,12287859.8394117,1,2,OK,0.0020351270466764954,75,2025-05-01T18:45:00+10:00
line,line.ln5650048-1,m1069610,m1069600,1674805.91406526,12287986.7048199,1674960.5257774,12287859.8394117,2,2,OK,0.0020358376021988173,75,2025-05-01T18:45:00+10:00
line,line.ln6290203-1,m1069424,l2935549,1673946.92961646,12276991.3000096,1673877.42868839,12276709.0610333,1,1,OK,0.039224739184974294,75,2025-05-01T18:45:00+10:00
line,line.ln6290203-1,m1069424,l2935549,1673946.92961646,12276991.3000096,1673877.42868839,12276709.0610333,1,2,OK,0.08697721412302638,75,2025-05-01T18:45:00+10:00
line,line.ln6290203-1,m1069424,l2935549,1673946.92961646,12276991.3000096,1673877.42868839,12276709.0610333,1,3,OK,0.064468466966525,75,2025-05-01T18:45:00+10:00
line,line.ln6290203-1,m1069424,l2935549,1673946.92961646,12276991.3000096,1673877.42868839,12276709.0610333,2,1,OK,0.039226652070168934,75,2025-05-01T18:45:00+10:00
line,line.ln6290203-1,m1069424,l2935549,1673946.92961646,12276991.3000096,1673877.42868839,12276709.0610333,2,2,OK,0.08697926089645648,75,2025-05-01T18:45:00+10:00
line,line.ln6290203-1,m1069424,l2935549,1673946.92961646,12276991.3000096,1673877.42868839,12276709.0610333,2,3,OK,0.06446976490729686,75,2025-05-01T18:45:00+10:00
line,line.ln6134414-1,p895089,l3235242,1676362.37358671,12283389.8172636,1676340.52961869,12283192.5088474,1,3,OK,0.0041742755436589086,75,2025-05-01T18:45:00+10:00
line,line.ln6134414-1,p895089,l3235242,1676362.37358671,12283389.8172636,1676340.52961869,12283192.5088474,2,3,OK,0.004174987079009616,75,2025-05-01T18:45:00+10:00
line,line.ln6259998-2,m1026795,n1140522,1668183.45210709,12280738.2839491,1668142.77063505,12280738.5665731,1,3,OK,0.002534904997687173,75,2025-05-01T18:45:00+10:00
line,line.ln6259998-2,m1026795,n1140522,1668183.45210709,12280738.2839491,1668142.77063505,12280738.5665731,2,3,OK,0.0025350635527879926,75,2025-05-01T18:45:00+10:00
line,line.ln6078767-1,l3030199,m1125934,1683921.11151375,12273546.1707904,1683853.92072969,12273477.4481023,1,1,OK,0.16142923844138587,75,2025-05-01T18:45:00+10:00
line,line.ln6078767-1,l3030199,m1125934,1683921.11151375,12273546.1707904,1683853.92072969,12273477.4481023,1,2,OK,0.18993024171787184,75,2025-05-01T18:45:00+10:00
line,line.ln6078767-1,l3030199,m1125934,1683921.11151375,12273546.1707904,1683853.92072969,12273477.4481023,1,3,OK,0.24153289769663946,75,2025-05-01T18:45:00+10:00
line,line.ln6078767-1,l3030199,m1125934,1683921.11151375,12273546.1707904,1683853.92072969,12273477.4481023,2,1,OK,0.1614299286489853,75,2025-05-01T18:45:00+10:00
line,line.ln6078767-1,l3030199,m1125934,1683921.11151375,12273546.1707904,1683853.92072969,12273477.4481023,2,2,OK,0.18993099797544485,75,2025-05-01T18:45:00+10:00
line,line.ln6078767-1,l3030199,m1125934,1683921.11151375,12273546.1707904,1683853.92072969,12273477.4481023,2,3,OK,0.2415333755000329,75,2025-05-01T18:45:00+10:00
line,line.ln6017300-1,m1069189,l2860487,1675446.08200185,12268159.0501454,1675290.42990571,12268398.2401616,1,3,OK,0.0012548399006119468,75,2025-05-01T18:45:00+10:00
line,line.ln6017300-1,m1069189,l2860487,1675446.08200185,12268159.0501454,1675290.42990571,12268398.2401616,2,3,OK,0.0012558449310130664,75,2025-05-01T18:45:00+10:00
line,line.ln8979257-2,221-312488,m1089183,1678663.47771685,12279597.547948,1678662.94933285,12279553.204652,1,1,OK,0.004035753521684602,75,2025-05-01T18:45:00+10:00
line,line.ln8979257-2,221-312488,m1089183,1678663.47771685,12279597.547948,1678662.94933285,12279553.204652,1,2,OK,0.004341034497115411,75,2025-05-01T18:45:00+10:00
line,line.ln8979257-2,221-312488,m1089183,1678663.47771685,12279597.547948,1678662.94933285,12279553.204652,1,3,OK,0.004454784758952415,75,2025-05-01T18:45:00+10:00
line,line.ln8979257-2,221-312488,m1089183,1678663.47771685,12279597.547948,1678662.94933285,12279553.204652,2,1,OK,0.004038105046766505,75,2025-05-01T18:45:00+10:00
line,line.ln8979257-2,221-312488,m1089183,1678663.47771685,12279597.547948,1678662.94933285,12279553.204652,2,2,OK,0.0043434065390447986,75,2025-05-01T18:45:00+10:00
line,line.ln8979257-2,221-312488,m1089183,1678663.47771685,12279597.547948,1678662.94933285,12279553.204652,2,3,OK,0.0044572118768107585,75,2025-05-01T18:45:00+10:00
line,line.ln81048109-1,m1108464,l3102286,1680280.35733436,12280152.5477566,1680128.16635822,12279984.8902844,1,2,OK,0.011344257986122522,75,2025-05-01T18:45:00+10:00
line,line.ln81048109-1,m1108464,l3102286,1680280.35733436,12280152.5477566,1680128.16635822,12279984.8902844,2,2,OK,0.011353015936860507,75,2025-05-01T18:45:00+10:00
line,line.293471,f739845,293471,1669719.14900452,12262514.7088921,1669719.14900452,12262515.7088921,1,1,OK,0.0018580721772384686,75,2025-05-01T18:45:00+10:00
line,line.293471,f739845,293471,1669719.14900452,12262514.7088921,1669719.14900452,12262515.7088921,1,2,OK,0.0020550252639216426,75,2025-05-01T18:45:00+10:00
line,line.293471,f739845,293471,1669719.14900452,12262514.7088921,1669719.14900452,12262515.7088921,1,3,OK,0.00209530502763791,75,2025-05-01T18:45:00+10:00
line,line.293471,f739845,293471,1669719.14900452,12262514.7088921,1669719.14900452,12262515.7088921,2,1,OK,0.0018586418258095456,75,2025-05-01T18:45:00+10:00
line,line.293471,f739845,293471,1669719.14900452,12262514.7088921,1669719.14900452,12262515.7088921,2,2,OK,0.0020556423317334626,75,2025-05-01T18:45:00+10:00
line,line.293471,f739845,293471,1669719.14900452,12262514.7088921,1669719.14900452,12262515.7088921,2,3,OK,0.002095727818821606,75,2025-05-01T18:45:00+10:00
line,line.ln5534965-2,p827499,n1139254,1673775.8274083,12276424.5160091,1673761.93377629,12276440.1545371,1,1,OK,0.0018489825639511498,75,2025-05-01T18:45:00+10:00
line,line.ln5534965-2,p827499,n1139254,1673775.8274083,12276424.5160091,1673761.93377629,12276440.1545371,2,1,OK,0.001849055959393167,75,2025-05-01T18:45:00+10:00
line,line.ln5655683-1,m1026657,m1026656,1666714.59373772,12276478.3005851,1666725.33754573,12276461.7650331,1,1,OK,0.029362123110683588,75,2025-05-01T18:45:00+10:00
line,line.ln5655683-1,m1026657,m1026656,1666714.59373772,12276478.3005851,1666725.33754573,12276461.7650331,2,1,OK,0.0293621903506772,75,2025-05-01T18:45:00+10:00
line,line.ln5686247-1,m1108299,m1108300,1681333.09077534,12270993.318308,1681355.32386336,12270995.038628,1,2,OK,0.002871342073019365,75,2025-05-01T18:45:00+10:00
line,line.ln5686247-1,m1108299,m1108300,1681333.09077534,12270993.318308,1681355.32386336,12270995.038628,2,2,OK,0.002871417700884047,75,2025-05-01T18:45:00+10:00
line,line.ln6048642-1,l3198355,l2805037,1681976.74031194,12271041.8886761,1682339.37148027,12271067.9801961,1,2,OK,0.000004737010555576516,75,2025-05-01T18:45:00+10:00
line,line.ln6048642-1,l3198355,l2805037,1681976.74031194,12271041.8886761,1682339.37148027,12271067.9801961,2,2,OK,4.547473508864641e-15,75,2025-05-01T18:45:00+10:00
line,line.ln5928544-3,n1137994,m1069484,1672916.4456475,12279872.8646843,1673050.76167962,12280000.0004284,1,3,OK,0.02119265992235704,75,2025-05-01T18:45:00+10:00
line,line.ln5928544-3,n1137994,m1069484,1672916.4456475,12279872.8646843,1673050.76167962,12280000.0004284,2,3,OK,0.021193298033497805,75,2025-05-01T18:45:00+10:00
line,line.ln6108172-1,l2860504,l2860493,1664980.35143211,12278329.3198509,1664964.77024809,12279012.3483315,1,1,OK,0.0037327295742802507,75,2025-05-01T18:45:00+10:00
line,line.ln6108172-1,l2860504,l2860493,1664980.35143211,12278329.3198509,1664964.77024809,12279012.3483315,2,1,OK,0.00373514861978165,75,2025-05-01T18:45:00+10:00
line,line.ln5532754-1,m1026783,m1026780,1668025.07617094,12280424.2026688,1667999.91034692,12280371.0816448,1,1,OK,0.10965686151926074,75,2025-05-01T18:45:00+10:00
line,line.ln5532754-1,m1026783,m1026780,1668025.07617094,12280424.2026688,1667999.91034692,12280371.0816448,1,2,OK,0.049659783377630745,75,2025-05-01T18:45:00+10:00
line,line.ln5532754-1,m1026783,m1026780,1668025.07617094,12280424.2026688,1667999.91034692,12280371.0816448,1,3,OK,0.06809598498675747,75,2025-05-01T18:45:00+10:00
line,line.ln5532754-1,m1026783,m1026780,1668025.07617094,12280424.2026688,1667999.91034692,12280371.0816448,2,1,OK,0.10965721825064526,75,2025-05-01T18:45:00+10:00
line,line.ln5532754-1,m1026783,m1026780,1668025.07617094,12280424.2026688,1667999.91034692,12280371.0816448,2,2,OK,0.04966017867149845,75,2025-05-01T18:45:00+10:00
line,line.ln5532754-1,m1026783,m1026780,1668025.07617094,12280424.2026688,1667999.91034692,12280371.0816448,2,3,OK,0.06809624358106621,75,2025-05-01T18:45:00+10:00
line,line.ln5591834-1,p895111,l2895496,1684762.95420253,12276444.5249691,1684533.77071432,12276445.0943131,1,3,OK,0.005482408371504357,75,2025-05-01T18:45:00+10:00
line,line.ln5591834-1,p895111,l2895496,1684762.95420253,12276444.5249691,1684533.77071432,12276445.0943131,2,3,OK,0.0054832194588861375,75,2025-05-01T18:45:00+10:00
line,line.ln6347196-2,n1140819,m1026700,1665943.435721,12278103.5442346,1665859.20557693,12278130.2255787,1,1,OK,0.054238070173486606,75,2025-05-01T18:45:00+10:00
line,line.ln6347196-2,n1140819,m1026700,1665943.435721,12278103.5442346,1665859.20557693,12278130.2255787,1,2,OK,0.02947224544581961,75,2025-05-01T18:45:00+10:00
line,line.ln6347196-2,n1140819,m1026700,1665943.435721,12278103.5442346,1665859.20557693,12278130.2255787,1,3,OK,0.05090114928698051,75,2025-05-01T18:45:00+10:00
line,line.ln6347196-2,n1140819,m1026700,1665943.435721,12278103.5442346,1665859.20557693,12278130.2255787,2,1,OK,0.054238603127146984,75,2025-05-01T18:45:00+10:00
line,line.ln6347196-2,n1140819,m1026700,1665943.435721,12278103.5442346,1665859.20557693,12278130.2255787,2,2,OK,0.029472829974971443,75,2025-05-01T18:45:00+10:00
line,line.ln6347196-2,n1140819,m1026700,1665943.435721,12278103.5442346,1665859.20557693,12278130.2255787,2,3,OK,0.05090152235513132,75,2025-05-01T18:45:00+10:00
line,line.ln5532741-1,m1089173,l2935551,1677019.24091532,12277474.7304101,1677018.75349132,12277674.3940262,1,3,OK,0.013119205795725437,75,2025-05-01T18:45:00+10:00
line,line.ln5532741-1,m1089173,l2935551,1677019.24091532,12277474.7304101,1677018.75349132,12277674.3940262,2,3,OK,0.013119879190238765,75,2025-05-01T18:45:00+10:00
line,line.ln5804803-1,m1026344,m1026364,1667363.35098633,12260734.9313545,1666951.89959394,12261536.7602192,1,1,OK,0.0011179866347799789,75,2025-05-01T18:45:00+10:00
line,line.ln5804803-1,m1026344,m1026364,1667363.35098633,12260734.9313545,1666951.89959394,12261536.7602192,2,1,OK,0.0011213392536168728,75,2025-05-01T18:45:00+10:00
line,line.ln6169248-1,l2879070,l3216345,1668406.4055793,12283697.1892959,1668136.74132305,12283811.72984,1,1,OK,0.1885561413831776,75,2025-05-01T18:45:00+10:00
line,line.ln6169248-1,l2879070,l3216345,1668406.4055793,12283697.1892959,1668136.74132305,12283811.72984,1,2,OK,0.13679856895896397,75,2025-05-01T18:45:00+10:00
line,line.ln6169248-1,l2879070,l3216345,1668406.4055793,12283697.1892959,1668136.74132305,12283811.72984,1,3,OK,0.09372441364512576,75,2025-05-01T18:45:00+10:00
line,line.ln6169248-1,l2879070,l3216345,1668406.4055793,12283697.1892959,1668136.74132305,12283811.72984,2,1,OK,0.18855811686641896,75,2025-05-01T18:45:00+10:00
line,line.ln6169248-1,l2879070,l3216345,1668406.4055793,12283697.1892959,1668136.74132305,12283811.72984,2,2,OK,0.13680071546021952,75,2025-05-01T18:45:00+10:00
line,line.ln6169248-1,l2879070,l3216345,1668406.4055793,12283697.1892959,1668136.74132305,12283811.72984,2,3,OK,0.09372578267806948,75,2025-05-01T18:45:00+10:00
line,line.ln5532786-2,m1069428,n1139257,1674009.03316852,12277235.0242978,1673959.45518447,12277256.5692579,1,2,OK,0.0032858421608848386,75,2025-05-01T18:45:00+10:00
line,line.ln5532786-2,m1069428,n1139257,1674009.03316852,12277235.0242978,1673959.45518447,12277256.5692579,2,2,OK,0.0032860319765157992,75,2025-05-01T18:45:00+10:00
line,line.ln5744339-1,l2991919,m1026361,1667350.28884232,12261158.4700429,1667347.24141831,12261438.2800911,1,1,OK,0.023739179496310502,75,2025-05-01T18:45:00+10:00
line,line.ln5744339-1,l2991919,m1026361,1667350.28884232,12261158.4700429,1667347.24141831,12261438.2800911,2,1,OK,0.023740141081575943,75,2025-05-01T18:45:00+10:00
line,line.ln5531255-3,n1147857,m1009742,1662873.97114215,12281228.5137096,1662801.22208608,12281064.2682054,1,1,OK,0.02444355484110027,75,2025-05-01T18:45:00+10:00
line,line.ln5531255-3,n1147857,m1009742,1662873.97114215,12281228.5137096,1662801.22208608,12281064.2682054,2,1,OK,0.02444417068459967,75,2025-05-01T18:45:00+10:00
line,line.ln5926308-2,q14412,m1047325,1671194.02849389,12264023.3119015,1671194.02849389,12264021.3119015,1,1,OK,0.058086165722031284,75,2025-05-01T18:45:00+10:00
line,line.ln5926308-2,q14412,m1047325,1671194.02849389,12264023.3119015,1671194.02849389,12264021.3119015,1,2,OK,0.06999637136705013,75,2025-05-01T18:45:00+10:00
line,line.ln5926308-2,q14412,m1047325,1671194.02849389,12264023.3119015,1671194.02849389,12264021.3119015,1,3,OK,0.027858064727940324,75,2025-05-01T18:45:00+10:00
line,line.ln5926308-2,q14412,m1047325,1671194.02849389,12264023.3119015,1671194.02849389,12264021.3119015,2,1,OK,0.05808679457570563,75,2025-05-01T18:45:00+10:00
line,line.ln5926308-2,q14412,m1047325,1671194.02849389,12264023.3119015,1671194.02849389,12264021.3119015,2,2,OK,0.06999705558688275,75,2025-05-01T18:45:00+10:00
line,line.ln5926308-2,q14412,m1047325,1671194.02849389,12264023.3119015,1671194.02849389,12264021.3119015,2,3,OK,0.027858521783654777,75,2025-05-01T18:45:00+10:00
line,line.ln5683856-3,n1139263,l3048227,1673655.35995219,12278801.3797553,1673739.92187227,12278812.2587313,1,1,OK,0.001848128681074568,75,2025-05-01T18:45:00+10:00
line,line.ln5683856-3,n1139263,l3048227,1673655.35995219,12278801.3797553,1673739.92187227,12278812.2587313,2,1,OK,0.0018484288872415273,75,2025-05-01T18:45:00+10:00
line,line.ln6171502-1,p827506,m1069469,1673605.50344014,12278794.9654193,1673628.44513616,12278797.9145393,1,1,OK,0.002952305431167857,75,2025-05-01T18:45:00+10:00
line,line.ln6171502-1,p827506,m1069469,1673605.50344014,12278794.9654193,1673628.44513616,12278797.9145393,2,1,OK,0.0029523859944973886,75,2025-05-01T18:45:00+10:00
line,line.ln5593228-1,m1027019,l2785522,1663359.5519426,12292569.7110321,1663557.67955878,12292571.0299441,1,2,OK,0.0020576085301182994,75,2025-05-01T18:45:00+10:00
line,line.ln5593228-1,m1027019,l2785522,1663359.5519426,12292569.7110321,1663557.67955878,12292571.0299441,2,2,OK,0.002058311519343881,75,2025-05-01T18:45:00+10:00
line,line.ln6380800-1,l3216338,l2973146,1659686.97184318,12283815.981488,1659688.01222718,12283623.7889758,1,2,OK,0.0020663210975279734,75,2025-05-01T18:45:00+10:00
line,line.ln6380800-1,l3216338,l2973146,1659686.97184318,12283815.981488,1659688.01222718,12283623.7889758,2,2,OK,0.0020669965688939816,75,2025-05-01T18:45:00+10:00
line,line.ln6199525-2,m3037452,l2973164,1667364.19885833,12262666.5394203,1667597.83060255,12262647.3087003,1,1,OK,0.0007458428381910043,75,2025-05-01T18:45:00+10:00
line,line.ln6199525-2,m3037452,l2973164,1667364.19885833,12262666.5394203,1667597.83060255,12262647.3087003,2,1,OK,0.0007466484099604655,75,2025-05-01T18:45:00+10:00
line,line.ln5772710-2,l3120376,m1026925,1667170.01978615,12285936.3004659,1667245.43124222,12286219.5183862,1,1,OK,0.014753980721364895,75,2025-05-01T18:45:00+10:00
line,line.ln5772710-2,l3120376,m1026925,1667170.01978615,12285936.3004659,1667245.43124222,12286219.5183862,2,1,OK,0.014755001634033925,75,2025-05-01T18:45:00+10:00
line,line.ln8961760-1,m1047612,p828360,1669965.62580475,12283881.77144,1669953.66958074,12283868.823984,1,3,OK,0.013346293411934938,75,2025-05-01T18:45:00+10:00
line,line.ln8961760-1,m1047612,p828360,1669965.62580475,12283881.77144,1669953.66958074,12283868.823984,2,3,OK,0.013346741419064842,75,2025-05-01T18:45:00+10:00
line,line.ln6047556-1,m1089195,l3141393,1676298.34081865,12282743.058863,1675928.5580343,12282735.399343,1,3,OK,0.0020882076998674512,75,2025-05-01T18:45:00+10:00
line,line.ln6047556-1,m1089195,l3141393,1676298.34081865,12282743.058863,1675928.5580343,12282735.399343,2,3,OK,0.002089542169167614,75,2025-05-01T18:45:00+10:00
line,line.ln6138603-1,m1026946,m1026940,1664871.86887201,12287436.3785473,1664735.88986388,12287037.079987,1,2,OK,0.003274693152187798,75,2025-05-01T18:45:00+10:00
line,line.ln6138603-1,m1026946,m1026940,1664871.86887201,12287436.3785473,1664735.88986388,12287037.079987,2,2,OK,0.0032761274669898355,75,2025-05-01T18:45:00+10:00
line,line.ln6108139-1,m1047471,l3216349,1668737.26817161,12277443.289514,1668791.46644366,12277469.8725541,1,2,OK,0.0012475243789291128,75,2025-05-01T18:45:00+10:00
line,line.ln6108139-1,m1047471,l3216349,1668737.26817161,12277443.289514,1668791.46644366,12277469.8725541,2,2,OK,0.0012477347603901093,75,2025-05-01T18:45:00+10:00
line,line.ln6388581-2,m1047401,l2748132,1670317.46401308,12272009.429413,1670146.82874892,12271940.8214129,1,1,OK,0.001119810637550733,75,2025-05-01T18:45:00+10:00
line,line.ln6388581-2,m1047401,l2748132,1670317.46401308,12272009.429413,1670146.82874892,12271940.8214129,2,1,OK,0.0011204112624558274,75,2025-05-01T18:45:00+10:00
line,line.ln5774460-1,l3122820,l3141398,1667666.90964261,12274675.6509835,1667627.36685857,12274484.7937673,1,1,OK,0.0011208584587288023,75,2025-05-01T18:45:00+10:00
line,line.ln5774460-1,l3122820,l3141398,1667666.90964261,12274675.6509835,1667627.36685857,12274484.7937673,2,1,OK,0.0011215499497820914,75,2025-05-01T18:45:00+10:00
line,line.ln5624387-1,m1108360,l3048968,1680168.20066225,12274271.2406151,1680113.0807902,12274442.9817992,1,3,OK,0.003210969071431117,75,2025-05-01T18:45:00+10:00
line,line.ln5624387-1,m1108360,l3048968,1680168.20066225,12274271.2406151,1680113.0807902,12274442.9817992,2,3,OK,0.0032115891322281177,75,2025-05-01T18:45:00+10:00
line,line.ln6137087-1,l2801950,m1069224,1674219.15796871,12270999.056804,1674133.53928063,12271064.7812201,1,3,OK,0.01676108359295067,75,2025-05-01T18:45:00+10:00
line,line.ln6137087-1,l2801950,m1069224,1674219.15796871,12270999.056804,1674133.53928063,12271064.7812201,2,3,OK,0.016761459638372164,75,2025-05-01T18:45:00+10:00
line,line.ln6077809-1,l2766746,m1027073,1666196.35962524,12293191.2094007,1666181.47885723,12293553.369529,1,3,OK,0.02126390074609276,75,2025-05-01T18:45:00+10:00
line,line.ln6077809-1,l2766746,m1027073,1666196.35962524,12293191.2094007,1666181.47885723,12293553.369529,2,3,OK,0.021265188530781264,75,2025-05-01T18:45:00+10:00
line,line.ln6440079-1,l2895496,m1142873,1684533.77071432,12276445.0943131,1684367.89090616,12276444.0006811,1,3,OK,0.0054832194589095416,75,2025-05-01T18:45:00+10:00
line,line.ln6440079-1,l2895496,m1142873,1684533.77071432,12276445.0943131,1684367.89090616,12276444.0006811,2,3,OK,0.005483807516243552,75,2025-05-01T18:45:00+10:00
line,line.ln5804794-1,m1069181,l2973151,1673972.43950448,12268069.2207693,1673727.53966425,12268104.8805453,1,1,OK,0.016720641250791195,75,2025-05-01T18:45:00+10:00
line,line.ln5804794-1,m1069181,l2973151,1673972.43950448,12268069.2207693,1673727.53966425,12268104.8805453,2,1,OK,0.016721512898024534,75,2025-05-01T18:45:00+10:00
line,line.ln5654484-1,l3179682,l2786274,1681672.94818365,12271868.3385968,1681741.04827972,12271928.6603889,1,3,OK,0.0021187403962405708,75,2025-05-01T18:45:00+10:00
line,line.ln5654484-1,l3179682,l2786274,1681672.94818365,12271868.3385968,1681741.04827972,12271928.6603889,2,3,OK,0.0021190552164522818,75,2025-05-01T18:45:00+10:00
line,line.ln5774465-1,l3066816,m1026667,1664599.95591175,12277333.7378979,1664354.33107952,12277019.9392416,1,1,OK,0.0037330781952081547,75,2025-05-01T18:45:00+10:00
line,line.ln5774465-1,l3066816,m1026667,1664599.95591175,12277333.7378979,1664354.33107952,12277019.9392416,2,1,OK,0.003734439802752367,75,2025-05-01T18:45:00+10:00
line,line.ln5473349-1,m1108529,m1108532,1680506.51797457,12283208.2292954,1680446.60168651,12283263.3204955,1,1,OK,0.5195978998582717,75,2025-05-01T18:45:00+10:00
line,line.ln5473349-1,m1108529,m1108532,1680506.51797457,12283208.2292954,1680446.60168651,12283263.3204955,1,2,OK,0.5310038097702906,75,2025-05-01T18:45:00+10:00
line,line.ln5473349-1,m1108529,m1108532,1680506.51797457,12283208.2292954,1680446.60168651,12283263.3204955,1,3,OK,0.405040879693,75,2025-05-01T18:45:00+10:00
line,line.ln5473349-1,m1108529,m1108532,1680506.51797457,12283208.2292954,1680446.60168651,12283263.3204955,2,1,OK,0.5195980748963066,75,2025-05-01T18:45:00+10:00
line,line.ln5473349-1,m1108529,m1108532,1680506.51797457,12283208.2292954,1680446.60168651,12283263.3204955,2,2,OK,0.5310040224228261,75,2025-05-01T18:45:00+10:00
line,line.ln5473349-1,m1108529,m1108532,1680506.51797457,12283208.2292954,1680446.60168651,12283263.3204955,2,3,OK,0.4050406285907129,75,2025-05-01T18:45:00+10:00
line,line.ln6169253-1,l2766723,l3122822,1664187.95155937,12278339.5803309,1664285.66163946,12278499.639723,1,1,OK,0.0018658781837609841,75,2025-05-01T18:45:00+10:00
line,line.ln6169253-1,l2766723,l3122822,1664187.95155937,12278339.5803309,1664285.66163946,12278499.639723,2,1,OK,0.0018665271399203578,75,2025-05-01T18:45:00+10:00
line,line.ln6350536-1,l2673312,l3235247,1663803.61978301,12289424.9292052,1663595.39143082,12289860.7190296,1,1,OK,0.0011152059547153306,75,2025-05-01T18:45:00+10:00
line,line.ln6350536-1,l2673312,l3235247,1663803.61978301,12289424.9292052,1663595.39143082,12289860.7190296,2,1,OK,0.0011171343294270218,75,2025-05-01T18:45:00+10:00
line,line.ln6048523-1,m1166391,l3254873,1689062.43939054,12283329.6388315,1688723.45033422,12283409.8180316,1,3,OK,0.03047421643499686,75,2025-05-01T18:45:00+10:00
line,line.ln6048523-1,m1166391,l3254873,1689062.43939054,12283329.6388315,1688723.45033422,12283409.8180316,2,3,OK,0.03047541514637876,75,2025-05-01T18:45:00+10:00
line,line.ln5594152-1,l2861157,p901951,1691680.49200097,12281568.2318539,1691331.97974465,12281760.6987981,1,3,OK,0.033839729523683026,75,2025-05-01T18:45:00+10:00
line,line.ln5594152-1,l2861157,p901951,1691680.49200097,12281568.2318539,1691331.97974465,12281760.6987981,2,3,OK,0.03384113942579184,75,2025-05-01T18:45:00+10:00
line,line.ln5865248-1,m1047346,m1047345,1671966.14907061,12264735.5887662,1671856.24110251,12264646.3819821,1,1,OK,0.06808279707647061,75,2025-05-01T18:45:00+10:00
line,line.ln5865248-1,m1047346,m1047345,1671966.14907061,12264735.5887662,1671856.24110251,12264646.3819821,1,2,OK,0.07305821169772302,75,2025-05-01T18:45:00+10:00
line,line.ln5865248-1,m1047346,m1047345,1671966.14907061,12264735.5887662,1671856.24110251,12264646.3819821,1,3,OK,0.02785420254821042,75,2025-05-01T18:45:00+10:00
line,line.ln5865248-1,m1047346,m1047345,1671966.14907061,12264735.5887662,1671856.24110251,12264646.3819821,2,1,OK,0.06808359845090689,75,2025-05-01T18:45:00+10:00
line,line.ln5865248-1,m1047346,m1047345,1671966.14907061,12264735.5887662,1671856.24110251,12264646.3819821,2,2,OK,0.07305908222137322,75,2025-05-01T18:45:00+10:00
line,line.ln5865248-1,m1047346,m1047345,1671966.14907061,12264735.5887662,1671856.24110251,12264646.3819821,2,3,OK,0.027854781669751586,75,2025-05-01T18:45:00+10:00
line,line.ln6046143-1,l2989596,l2822873,1673763.40014429,12286115.4963701,1673476.56136002,12286162.9198582,1,2,OK,0.0008077419722719642,75,2025-05-01T18:45:00+10:00
line,line.ln6046143-1,l2989596,l2822873,1673763.40014429,12286115.4963701,1673476.56136002,12286162.9198582,2,2,OK,0.0008087474385500786,75,2025-05-01T18:45:00+10:00
line,line.ln5803287-1,m1108328,l2875754,1680988.14613502,12272155.1732851,1681057.91739908,12272155.8081651,1,3,OK,0.004282207930743341,75,2025-05-01T18:45:00+10:00
line,line.ln5803287-1,m1108328,l2875754,1680988.14613502,12272155.1732851,1681057.91739908,12272155.8081651,2,3,OK,0.004282456467182857,75,2025-05-01T18:45:00+10:00
line,line.ln5589094-1,l2786204,m1209819,1692261.57104152,12277819.4989224,1692167.75625743,12278034.6536106,1,3,OK,0.046465497855784646,75,2025-05-01T18:45:00+10:00
line,line.ln5589094-1,l2786204,m1209819,1692261.57104152,12277819.4989224,1692167.75625743,12278034.6536106,2,3,OK,0.046466319323417785,75,2025-05-01T18:45:00+10:00
line,line.ln5954983-1,p901972,m1009726,1662794.20154207,12281025.6470214,1662882.04026215,12280743.4531011,1,1,OK,0.024444305265464986,75,2025-05-01T18:45:00+10:00
line,line.ln5954983-1,p901972,m1009726,1662794.20154207,12281025.6470214,1662882.04026215,12280743.4531011,2,1,OK,0.024445318621548445,75,2025-05-01T18:45:00+10:00
line,line.ln5924696-2,m1047702,n1137001,1670249.62196502,12285031.1622891,1670369.50369313,12285007.2621291,1,1,OK,0.0010981052407280925,75,2025-05-01T18:45:00+10:00
line,line.ln5924696-2,m1047702,n1137001,1670249.62196502,12285031.1622891,1670369.50369313,12285007.2621291,2,1,OK,0.001098608140668634,75,2025-05-01T18:45:00+10:00
line,line.ln6506311-4,l2767340,m3037449,1681592.51093558,12278552.9696431,1681586.42018357,12278554.7882671,1,1,OK,1.2251491547691385e-7,75,2025-05-01T18:45:00+10:00
line,line.ln6506311-4,l2767340,m3037449,1681592.51093558,12278552.9696431,1681586.42018357,12278554.7882671,1,2,OK,1.3078876163119098e-7,75,2025-05-01T18:45:00+10:00
line,line.ln6506311-4,l2767340,m3037449,1681592.51093558,12278552.9696431,1681586.42018357,12278554.7882671,1,3,OK,0.0012662944165398203,75,2025-05-01T18:45:00+10:00
line,line.ln6506311-4,l2767340,m3037449,1681592.51093558,12278552.9696431,1681586.42018357,12278554.7882671,2,1,OK,1.058301728901923e-12,75,2025-05-01T18:45:00+10:00
line,line.ln6506311-4,l2767340,m3037449,1681592.51093558,12278552.9696431,1681586.42018357,12278554.7882671,2,2,OK,3.2539071653442657e-13,75,2025-05-01T18:45:00+10:00
line,line.ln6506311-4,l2767340,m3037449,1681592.51093558,12278552.9696431,1681586.42018357,12278554.7882671,2,3,OK,0.0012663201915030585,75,2025-05-01T18:45:00+10:00
line,line.ln5653493-1,m1047457,l2710546,1669348.39137218,12276271.3174169,1669268.7692281,12276376.129961,1,2,OK,0.024747657442700174,75,2025-05-01T18:45:00+10:00
line,line.ln5653493-1,m1047457,l2710546,1669348.39137218,12276271.3174169,1669268.7692281,12276376.129961,2,2,OK,0.024748112516448664,75,2025-05-01T18:45:00+10:00
line,line.ln5684836-1,l2674027,l2692633,1680654.82184671,12282665.0587349,1680603.55221466,12282881.7862871,1,1,OK,0.5520715796300152,75,2025-05-01T18:45:00+10:00
line,line.ln5684836-1,l2674027,l2692633,1680654.82184671,12282665.0587349,1680603.55221466,12282881.7862871,1,2,OK,0.550914887718701,75,2025-05-01T18:45:00+10:00
line,line.ln5684836-1,l2674027,l2692633,1680654.82184671,12282665.0587349,1680603.55221466,12282881.7862871,1,3,OK,0.427294843073934,75,2025-05-01T18:45:00+10:00
line,line.ln5684836-1,l2674027,l2692633,1680654.82184671,12282665.0587349,1680603.55221466,12282881.7862871,2,1,OK,0.5520720261284578,75,2025-05-01T18:45:00+10:00
line,line.ln5684836-1,l2674027,l2692633,1680654.82184671,12282665.0587349,1680603.55221466,12282881.7862871,2,2,OK,0.5509155146601163,75,2025-05-01T18:45:00+10:00
line,line.ln5684836-1,l2674027,l2692633,1680654.82184671,12282665.0587349,1680603.55221466,12282881.7862871,2,3,OK,0.42729423534500754,75,2025-05-01T18:45:00+10:00
line,line.ln5715016-3,n1142108,l2674051,1682000.19400796,12272407.7244533,1681885.21519185,12272620.3560055,1,1,OK,0.0011200336597314336,75,2025-05-01T18:45:00+10:00
line,line.ln5715016-3,n1142108,l2674051,1682000.19400796,12272407.7244533,1681885.21519185,12272620.3560055,2,1,OK,0.0011208888918668926,75,2025-05-01T18:45:00+10:00
line,line.ln6138614-1,m1069135,r18242,1672616.09006322,12265429.3119028,1672458.68078307,12265257.6485427,1,1,OK,0.07178438149396951,75,2025-05-01T18:45:00+10:00
line,line.ln6138614-1,m1069135,r18242,1672616.09006322,12265429.3119028,1672458.68078307,12265257.6485427,1,2,OK,0.07305235867718095,75,2025-05-01T18:45:00+10:00
line,line.ln6138614-1,m1069135,r18242,1672616.09006322,12265429.3119028,1672458.68078307,12265257.6485427,1,3,OK,0.03414750935220416,75,2025-05-01T18:45:00+10:00
line,line.ln6138614-1,m1069135,r18242,1672616.09006322,12265429.3119028,1672458.68078307,12265257.6485427,2,1,OK,0.07178570351897089,75,2025-05-01T18:45:00+10:00
line,line.ln6138614-1,m1069135,r18242,1672616.09006322,12265429.3119028,1672458.68078307,12265257.6485427,2,2,OK,0.07305379201525634,75,2025-05-01T18:45:00+10:00
line,line.ln6138614-1,m1069135,r18242,1672616.09006322,12265429.3119028,1672458.68078307,12265257.6485427,2,3,OK,0.03414846692941284,75,2025-05-01T18:45:00+10:00
line,line.ln6077781-2,m1047534,n1136663,1671310.240206,12282700.4113109,1670978.48468569,12282522.5425108,1,1,OK,0.47038440262276077,75,2025-05-01T18:45:00+10:00
line,line.ln6077781-2,m1047534,n1136663,1671310.240206,12282700.4113109,1670978.48468569,12282522.5425108,1,2,OK,0.44272715005715135,75,2025-05-01T18:45:00+10:00
line,line.ln6077781-2,m1047534,n1136663,1671310.240206,12282700.4113109,1670978.48468569,12282522.5425108,1,3,OK,0.3773522360726269,75,2025-05-01T18:45:00+10:00
line,line.ln6077781-2,m1047534,n1136663,1671310.240206,12282700.4113109,1670978.48468569,12282522.5425108,2,1,OK,0.4703870007403632,75,2025-05-01T18:45:00+10:00
line,line.ln6077781-2,m1047534,n1136663,1671310.240206,12282700.4113109,1670978.48468569,12282522.5425108,2,2,OK,0.4427299439076526,75,2025-05-01T18:45:00+10:00
line,line.ln6077781-2,m1047534,n1136663,1671310.240206,12282700.4113109,1670978.48468569,12282522.5425108,2,3,OK,0.37735401103725913,75,2025-05-01T18:45:00+10:00
line,line.ln5675121-1,m1108508,l3097861,1678951.70094912,12282375.0987986,1678951.57397312,12282075.0995663,1,3,OK,0.000832674051244919,75,2025-05-01T18:45:00+10:00
line,line.ln5675121-1,m1108508,l3097861,1678951.70094912,12282375.0987986,1678951.57397312,12282075.0995663,2,3,OK,0.0008337515674920338,75,2025-05-01T18:45:00+10:00
line,line.ln5773046-1,m1069560,m1069567,1674751.72808121,12286289.5886583,1674888.19041734,12286519.2595705,1,2,OK,0.05006634785308053,75,2025-05-01T18:45:00+10:00
line,line.ln5773046-1,m1069560,m1069567,1674751.72808121,12286289.5886583,1674888.19041734,12286519.2595705,2,2,OK,0.050067272415813185,75,2025-05-01T18:45:00+10:00
line,line.ln6380809-2,l2973153,n1136998,1670296.77102106,12284293.5013604,1670297.01678106,12284328.0429284,1,1,OK,0.05040605406148038,75,2025-05-01T18:45:00+10:00
line,line.ln6380809-2,l2973153,n1136998,1670296.77102106,12284293.5013604,1670297.01678106,12284328.0429284,1,2,OK,0.12097801274946816,75,2025-05-01T18:45:00+10:00
line,line.ln6380809-2,l2973153,n1136998,1670296.77102106,12284293.5013604,1670297.01678106,12284328.0429284,1,3,OK,0.02854410007428573,75,2025-05-01T18:45:00+10:00
line,line.ln6380809-2,l2973153,n1136998,1670296.77102106,12284293.5013604,1670297.01678106,12284328.0429284,2,1,OK,0.0504062654499627,75,2025-05-01T18:45:00+10:00
line,line.ln6380809-2,l2973153,n1136998,1670296.77102106,12284293.5013604,1670297.01678106,12284328.0429284,2,2,OK,0.12097823320702497,75,2025-05-01T18:45:00+10:00
line,line.ln6380809-2,l2973153,n1136998,1670296.77102106,12284293.5013604,1670297.01678106,12284328.0429284,2,3,OK,0.028544261503234525,75,2025-05-01T18:45:00+10:00
line,line.ln6018326-1,l2898515,m1166387,1688920.1894064,12276646.6707613,1688911.1986864,12276842.0212895,1,3,OK,0.0025161734158300414,75,2025-05-01T18:45:00+10:00
line,line.ln6018326-1,l2898515,m1166387,1688920.1894064,12276646.6707613,1688911.1986864,12276842.0212895,2,3,OK,0.0025168494395505416,75,2025-05-01T18:45:00+10:00
line,line.ln5472356-1,m1047442,l3235250,1671318.21102201,12275473.1503762,1671154.10068586,12275606.7496083,1,2,OK,0.0008274419095081753,75,2025-05-01T18:45:00+10:00
line,line.ln5472356-1,m1047442,l3235250,1671318.21102201,12275473.1503762,1671154.10068586,12275606.7496083,2,2,OK,0.000828159371765458,75,2025-05-01T18:45:00+10:00
line,line.ln6139641-1,m1142871,m1142874,1684905.47042666,12276397.9288731,1684789.44713056,12276444.9058971,1,1,OK,0.6552826549277122,75,2025-05-01T18:45:00+10:00
line,line.ln6139641-1,m1142871,m1142874,1684905.47042666,12276397.9288731,1684789.44713056,12276444.9058971,1,2,OK,0.6431309907334757,75,2025-05-01T18:45:00+10:00
line,line.ln6139641-1,m1142871,m1142874,1684905.47042666,12276397.9288731,1684789.44713056,12276444.9058971,1,3,OK,0.4949795429381964,75,2025-05-01T18:45:00+10:00
line,line.ln6139641-1,m1142871,m1142874,1684905.47042666,12276397.9288731,1684789.44713056,12276444.9058971,2,1,OK,0.6552831052311799,75,2025-05-01T18:45:00+10:00
line,line.ln6139641-1,m1142871,m1142874,1684905.47042666,12276397.9288731,1684789.44713056,12276444.9058971,2,2,OK,0.6431315324088566,75,2025-05-01T18:45:00+10:00
line,line.ln6139641-1,m1142871,m1142874,1684905.47042666,12276397.9288731,1684789.44713056,12276444.9058971,2,3,OK,0.49497939758349174,75,2025-05-01T18:45:00+10:00
line,line.ln6018341-1,l2955081,m1108315,1681629.19061561,12272081.019301,1681524.37807152,12271788.5894768,1,1,OK,0.14469937618382367,75,2025-05-01T18:45:00+10:00
line,line.ln6018341-1,l2955081,m1108315,1681629.19061561,12272081.019301,1681524.37807152,12271788.5894768,1,2,OK,0.165407985031214,75,2025-05-01T18:45:00+10:00
line,line.ln6018341-1,l2955081,m1108315,1681629.19061561,12272081.019301,1681524.37807152,12271788.5894768,1,3,OK,0.22659526467490035,75,2025-05-01T18:45:00+10:00
line,line.ln6018341-1,l2955081,m1108315,1681629.19061561,12272081.019301,1681524.37807152,12271788.5894768,2,1,OK,0.14470157098664335,75,2025-05-01T18:45:00+10:00
line,line.ln6018341-1,l2955081,m1108315,1681629.19061561,12272081.019301,1681524.37807152,12271788.5894768,2,2,OK,0.16541039497014115,75,2025-05-01T18:45:00+10:00
line,line.ln6018341-1,l2955081,m1108315,1681629.19061561,12272081.019301,1681524.37807152,12271788.5894768,2,3,OK,0.22659676727826392,75,2025-05-01T18:45:00+10:00
line,line.ln6017302-1,l2973162,m1026333,1667209.50932218,12260500.2387463,1667082.36129007,12260380.9017861,1,1,OK,0.002977762069895791,75,2025-05-01T18:45:00+10:00
line,line.ln6017302-1,l2973162,m1026333,1667209.50932218,12260500.2387463,1667082.36129007,12260380.9017861,1,2,OK,0.056094558526382794,75,2025-05-01T18:45:00+10:00
line,line.ln6017302-1,l2973162,m1026333,1667209.50932218,12260500.2387463,1667082.36129007,12260380.9017861,1,3,OK,0.0012514698005087921,75,2025-05-01T18:45:00+10:00
line,line.ln6017302-1,l2973162,m1026333,1667209.50932218,12260500.2387463,1667082.36129007,12260380.9017861,2,1,OK,0.0029787273651328177,75,2025-05-01T18:45:00+10:00
line,line.ln6017302-1,l2973162,m1026333,1667209.50932218,12260500.2387463,1667082.36129007,12260380.9017861,2,2,OK,0.056095625125417554,75,2025-05-01T18:45:00+10:00
line,line.ln6017302-1,l2973162,m1026333,1667209.50932218,12260500.2387463,1667082.36129007,12260380.9017861,2,3,OK,0.0012521664734456385,75,2025-05-01T18:45:00+10:00
line,line.ln6199505-1,m1009832,l2860479,1660588.93152402,12283805.79064,1660685.33907611,12283874.288048,1,2,OK,0.0008204479447948082,75,2025-05-01T18:45:00+10:00
line,line.ln6199505-1,m1009832,l2860479,1660588.93152402,12283805.79064,1660685.33907611,12283874.288048,2,2,OK,0.0008208511943312797,75,2025-05-01T18:45:00+10:00
line,line.ln5682327-1,m1026854,p901894,1666749.15168976,12284240.8513764,1666760.53856977,12284256.6045924,1,1,OK,0.027840457510732594,75,2025-05-01T18:45:00+10:00
line,line.ln5682327-1,m1026854,p901894,1666749.15168976,12284240.8513764,1666760.53856977,12284256.6045924,2,1,OK,0.027840525177114578,75,2025-05-01T18:45:00+10:00
line,line.ln6290243-1,m1026485,m1026492,1668094.13063501,12267867.8900811,1668244.85114715,12268022.9359693,1,2,OK,0.004121686204724599,75,2025-05-01T18:45:00+10:00
line,line.ln6290243-1,m1026485,m1026492,1668094.13063501,12267867.8900811,1668244.85114715,12268022.9359693,2,2,OK,0.004122455392842316,75,2025-05-01T18:45:00+10:00
line,line.x8223_48332_sw,d6413567-3_int,e182724,1675034.79854547,12267900.4579531,1675034.79854547,12267899.4579531,1,1,OK,0.11272729642893153,75,2025-05-01T18:45:00+10:00
line,line.x8223_48332_sw,d6413567-3_int,e182724,1675034.79854547,12267900.4579531,1675034.79854547,12267899.4579531,1,2,OK,0.12072533559746697,75,2025-05-01T18:45:00+10:00
line,line.x8223_48332_sw,d6413567-3_int,e182724,1675034.79854547,12267900.4579531,1675034.79854547,12267899.4579531,1,3,OK,0.04397322987022403,75,2025-05-01T18:45:00+10:00
line,line.x8223_48332_sw,d6413567-3_int,e182724,1675034.79854547,12267900.4579531,1675034.79854547,12267899.4579531,2,1,OK,0.1127272984119385,75,2025-05-01T18:45:00+10:00
line,line.x8223_48332_sw,d6413567-3_int,e182724,1675034.79854547,12267900.4579531,1675034.79854547,12267899.4579531,2,2,OK,0.12072533760378672,75,2025-05-01T18:45:00+10:00
line,line.x8223_48332_sw,d6413567-3_int,e182724,1675034.79854547,12267900.4579531,1675034.79854547,12267899.4579531,2,3,OK,0.043973231822527915,75,2025-05-01T18:45:00+10:00
line,line.ln6413567-3,n1139541,d6413567-3_int,1675076.80302551,12267924.8900172,1675034.79854547,12267900.4579531,1,1,OK,0.11272701322756745,75,2025-05-01T18:45:00+10:00
line,line.ln6413567-3,n1139541,d6413567-3_int,1675076.80302551,12267924.8900172,1675034.79854547,12267900.4579531,1,2,OK,0.12072503126761791,75,2025-05-01T18:45:00+10:00
line,line.ln6413567-3,n1139541,d6413567-3_int,1675076.80302551,12267924.8900172,1675034.79854547,12267900.4579531,1,3,OK,0.04397302830258364,75,2025-05-01T18:45:00+10:00
line,line.ln6413567-3,n1139541,d6413567-3_int,1675076.80302551,12267924.8900172,1675034.79854547,12267900.4579531,2,1,OK,0.11272729642878052,75,2025-05-01T18:45:00+10:00
line,line.ln6413567-3,n1139541,d6413567-3_int,1675076.80302551,12267924.8900172,1675034.79854547,12267900.4579531,2,2,OK,0.1207253355964763,75,2025-05-01T18:45:00+10:00
line,line.ln6413567-3,n1139541,d6413567-3_int,1675076.80302551,12267924.8900172,1675034.79854547,12267900.4579531,2,3,OK,0.04397322987325286,75,2025-05-01T18:45:00+10:00
line,line.ln5591731-3,m4122658,l2933135,1681438.32111144,12280344.7771327,1681436.43285543,12280349.9176127,1,1,OK,0.5931658851277644,75,2025-05-01T18:45:00+10:00
line,line.ln5591731-3,m4122658,l2933135,1681438.32111144,12280344.7771327,1681436.43285543,12280349.9176127,1,2,OK,0.5634292230319518,75,2025-05-01T18:45:00+10:00
line,line.ln5591731-3,m4122658,l2933135,1681438.32111144,12280344.7771327,1681436.43285543,12280349.9176127,1,3,OK,0.43802086657623135,75,2025-05-01T18:45:00+10:00
line,line.ln5591731-3,m4122658,l2933135,1681438.32111144,12280344.7771327,1681436.43285543,12280349.9176127,2,1,OK,0.593165899350131,75,2025-05-01T18:45:00+10:00
line,line.ln5591731-3,m4122658,l2933135,1681438.32111144,12280344.7771327,1681436.43285543,12280349.9176127,2,2,OK,0.5634292404203931,75,2025-05-01T18:45:00+10:00
line,line.ln5591731-3,m4122658,l2933135,1681438.32111144,12280344.7771327,1681436.43285543,12280349.9176127,2,3,OK,0.4380208536346922,75,2025-05-01T18:45:00+10:00
line,line.ln5653470-1,m1026702,l2729414,1666852.66989785,12278175.7812907,1666900.0114659,12278019.0683306,1,1,OK,0.0018574412788607412,75,2025-05-01T18:45:00+10:00
line,line.ln5653470-1,m1026702,l2729414,1666852.66989785,12278175.7812907,1666900.0114659,12278019.0683306,1,2,OK,0.002036583311002317,75,2025-05-01T18:45:00+10:00
line,line.ln5653470-1,m1026702,l2729414,1666852.66989785,12278175.7812907,1666900.0114659,12278019.0683306,1,3,OK,0.002125854605905471,75,2025-05-01T18:45:00+10:00
line,line.ln5653470-1,m1026702,l2729414,1666852.66989785,12278175.7812907,1666900.0114659,12278019.0683306,2,1,OK,0.0018584385792583286,75,2025-05-01T18:45:00+10:00
line,line.ln5653470-1,m1026702,l2729414,1666852.66989785,12278175.7812907,1666900.0114659,12278019.0683306,2,2,OK,0.0020376430845027256,75,2025-05-01T18:45:00+10:00
line,line.ln5653470-1,m1026702,l2729414,1666852.66989785,12278175.7812907,1666900.0114659,12278019.0683306,2,3,OK,0.0021265249766306196,75,2025-05-01T18:45:00+10:00
line,line.ln6017316-1,l2729430,l2766742,1662906.80877418,12283538.3996637,1662560.90976585,12283624.4197598,1,2,OK,0.05043750611865565,75,2025-05-01T18:45:00+10:00
line,line.ln6017316-1,l2729430,l2766742,1662906.80877418,12283538.3996637,1662560.90976585,12283624.4197598,2,2,OK,0.050438719724486054,75,2025-05-01T18:45:00+10:00
line,line.ln5926299-1,m1026972,l2860483,1668420.29511531,12289417.3557012,1668221.44250713,12289426.6986772,1,2,OK,0.0041492618571120875,75,2025-05-01T18:45:00+10:00
line,line.ln5926299-1,m1026972,l2860483,1668420.29511531,12289417.3557012,1668221.44250713,12289426.6986772,2,2,OK,0.0041499555203178655,75,2025-05-01T18:45:00+10:00
line,line.ln5683831-1,l2860490,l3104134,1672218.17185485,12264992.4202544,1672079.87860672,12264837.2310063,1,1,OK,0.06808075590515833,75,2025-05-01T18:45:00+10:00
line,line.ln5683831-1,l2860490,l3104134,1672218.17185485,12264992.4202544,1672079.87860672,12264837.2310063,1,2,OK,0.07305599493629807,75,2025-05-01T18:45:00+10:00
...